28
# CELL(abcABC):    6.86700     7.19800     5.72700   109.10000    97.18000   101.84000  Step:         300  Bead:       0 positions{angstrom}  cell{angstrom}
       O  2.17307e+00  4.61419e-01  2.48179e+00
       O  2.50125e+00  4.51867e+00  2.81188e+00
       O  3.02075e+00 -5.75737e-01  4.25847e+00
       O  1.65357e+00  5.55583e+00  1.03520e+00
       C  2.41821e+00  3.65860e-01  3.76372e+00
       C  2.25611e+00  4.61423e+00  1.52994e+00
       C  1.89734e+00  1.53038e+00  4.54625e+00
       C  2.77698e+00  3.44971e+00  7.47416e-01
       H  2.56199e+00 -3.11881e-01  1.96966e+00
       H  2.11233e+00  5.29197e+00  3.32400e+00
       H  8.47959e-01  1.67530e+00  4.28019e+00
       H  3.82636e+00  3.30479e+00  1.01347e+00
       H  2.42601e+00  2.41267e+00  4.17731e+00
       H  2.24831e+00  2.56742e+00  1.11636e+00
       O  5.53843e+00  7.12618e-01  2.58007e+00
       O -8.64107e-01  4.26747e+00  2.71359e+00
       O -3.87168e-01  2.17880e+00  1.19420e+00
       O  5.06149e+00  2.80129e+00  4.09946e+00
       C  6.15549e+00  1.03306e+00  1.46800e+00
       C -1.48117e+00  3.94702e+00  3.82566e+00
       C  6.39689e+00 -1.42960e-01  5.73690e-01
       C -1.72257e+00  5.12305e+00  4.71997e+00
       H  5.36730e+00  1.52342e+00  3.14543e+00
       H -6.92979e-01  3.45667e+00  2.14823e+00
       H  3.93654e+00  6.60658e+00  1.97227e-01
       H  7.37783e-01 -1.62649e+00  5.09643e+00
       H -1.59315e+00  6.07260e+00  1.18847e+00
       H  6.26747e+00 -1.09251e+00  4.10519e+00
