24
# CELL(abcABC):    5.5146     5.4951     7.6536    90.00000    110.59   90.00000  Step:         45  Bead:       0 positions{angstrom}  cell{angstrom}
C        1.71733248       5.35772250       6.35436812
C       -0.24013969       2.61017250       4.39267459
C        1.10566272       0.13737750       0.81032702
C        3.06313488       2.88492750       2.77202055
H        0.96541992       5.27749404       5.81343364
H        0.51177287       2.52994404       4.93360908
H        1.85757527       0.21760596       1.35126150
H        2.31122232       2.96515596       2.23108607
C        2.70286995       4.40157510       6.30278232
C       -1.22567716       1.65402510       4.44426040
C        0.12012524       1.09352490       0.86191283
C        4.04867236       3.84107490       2.72043475
H        2.62369242       3.67677141       5.72674083
H       -1.14649963       0.92922141       5.02030189
H        0.19930278       1.81832859       1.43795432
H        3.96949482       4.56587859       2.14439326
C        4.52822877       0.96164250       0.05086934
C       -0.35943117       3.70919250       3.53147824
C       -1.70523357       4.53345750       7.11382581
C        3.18242636       1.78590750       3.63321691
H        3.85842823       1.60731675       0.07522930
H        0.31036937       4.35486675       3.50711827
H       -1.03543304       3.88778325       7.08946585
H        2.51262583       1.14023325       3.65757687
