28
# CELL(abcABC):    5.46400     8.76600     5.00400    90.00000    93.29000    90.00000  Step:         121  Bead:       0 positions{angstrom}  cell{angstrom}
       C  1.83294e-01  8.19260e+00  4.85893e+00
       C  4.99353e+00  5.73404e-01  1.36820e-01
       C  4.84994e+00  3.80960e+00  2.63470e+00
       C  3.26884e-01  4.95640e+00  2.36106e+00
       C  1.20147e+00  8.48284e+00  3.79986e+00
       C  3.97535e+00  2.83156e-01  1.19589e+00
       C  3.83177e+00  4.09984e+00  3.69377e+00
       C  1.34506e+00  4.66616e+00  1.30198e+00
       O  1.19180e+00  7.12443e-01  3.09173e+00
       O  3.98503e+00  8.05356e+00  1.90402e+00
       O  3.84144e+00  5.09544e+00  4.40190e+00
       O  1.33539e+00  3.67056e+00  5.93856e-01
       O  2.11116e+00  7.54640e+00  3.71021e+00
       O  3.06566e+00  1.21960e+00  1.28554e+00
       O  2.92207e+00  3.16340e+00  3.78342e+00
       O  2.25475e+00  5.60260e+00  1.21233e+00
       H  5.09811e+00  7.29902e+00  4.54316e+00
       H  7.87129e-02  1.46698e+00  4.52596e-01
       H -6.48765e-02  2.91602e+00  2.95047e+00
       H  5.24170e+00  5.84998e+00  2.04528e+00
       H  1.01244e+00  7.89633e+00  7.62479e-01
       H  4.16439e+00  8.69670e-01  4.23327e+00
       H  4.30798e+00  3.51333e+00  1.73540e+00
       H  8.68847e-01  5.25267e+00  3.26036e+00
       H  2.77820e+00  7.72970e+00  2.98865e+00
       H  2.39863e+00  1.03630e+00  2.00711e+00
       H  2.25504e+00  3.34670e+00  4.50498e+00
       H  2.92179e+00  5.41930e+00  4.90771e-01
