24
# CELL(abcABC):    5.50630     6.50910     6.27520    90.00000   103.63100    90.00000  Step:         124  Bead:       0 positions{angstrom}  cell{angstrom}
       C  1.11256e+00  2.44707e+00  1.57946e-01
       C  2.91488e+00  4.06203e+00  5.94050e+00
       C  9.01163e-01  5.70162e+00  2.89128e+00
       C  3.12627e+00  8.07482e-01  3.20717e+00
       C  1.29693e-01  2.46665e+00  1.13581e+00
       C  3.89774e+00  4.04245e+00  4.96264e+00
       C  1.88402e+00  5.72120e+00  1.91341e+00
       C  2.14341e+00  7.87901e-01  4.18504e+00
       C -4.92261e-01  3.23348e+00  5.12067e+00
       C  4.51970e+00  3.27562e+00  9.77782e-01
       C  1.02712e+00  6.48803e+00  4.02701e+00
       C  3.00032e+00  2.10719e-02  2.07144e+00
       H  1.98067e+00  1.81787e+00  2.97530e-01
       H  2.04677e+00  4.69123e+00  5.80092e+00
       H  3.30548e-02  5.07242e+00  2.75170e+00
       H  3.99438e+00  1.43668e+00  3.34676e+00
       H  2.44886e-01  1.84045e+00  2.01224e+00
       H  3.78255e+00  4.66865e+00  4.08621e+00
       H  1.76883e+00  5.09500e+00  1.03698e+00
       H  2.25860e+00  1.41410e+00  5.06147e+00
       H  2.85481e-01  3.21793e+00  4.36577e+00
       H  3.74196e+00  3.29117e+00  1.73269e+00
       H  2.49373e-01  6.47248e+00  4.78191e+00
       H  3.77806e+00  3.66186e-02  1.31654e+00
